22549479
  -OEChem-07072416523D

 53 57  0     1  0  0  0  0  0999 V2000
   -7.7832    0.9410   -0.3871 Cl  0  0  0  0  0  0  0  0  0  0  0  0
    1.2183    0.6039    3.5584 S   0  0  0  0  0  0  0  0  0  0  0  0
    2.7521    0.2798   -2.3647 O   0  0  0  0  0  0  0  0  0  0  0  0
   -1.2670   -0.7027   -1.3667 O   0  0  0  0  0  0  0  0  0  0  0  0
    1.5931    0.7932   -0.4132 N   0  0  0  0  0  0  0  0  0  0  0  0
   -2.2002   -0.4029    0.7724 N   0  0  0  0  0  0  0  0  0  0  0  0
   -4.3810    0.1626    1.5335 N   0  0  0  0  0  0  0  0  0  0  0  0
    1.8092    2.2062   -0.5380 C   0  0  0  0  0  0  0  0  0  0  0  0
    1.2577    2.7766   -1.8372 C   0  0  0  0  0  0  0  0  0  0  0  0
    3.2884    2.5782   -0.5891 C   0  0  0  0  0  0  0  0  0  0  0  0
    0.8826    0.3289    0.7912 C   0  0  1  0  0  0  0  0  0  0  0  0
    1.9543    4.1241   -1.9372 C   0  0  0  0  0  0  0  0  0  0  0  0
    3.3557    3.8855   -1.3802 C   0  0  0  0  0  0  0  0  0  0  0  0
    0.1059   -0.9774    0.5554 C   0  0  2  0  0  0  0  0  0  0  0  0
    2.1054   -0.0769   -1.3816 C   0  0  0  0  0  0  0  0  0  0  0  0
    0.8994   -1.9647   -0.2545 C   0  0  0  0  0  0  0  0  0  0  0  0
    1.8413   -1.5267   -1.1939 C   0  0  0  0  0  0  0  0  0  0  0  0
    1.8181    0.2378    1.9968 C   0  0  0  0  0  0  0  0  0  0  0  0
   -1.1929   -0.6821   -0.1424 C   0  0  0  0  0  0  0  0  0  0  0  0
    0.6709   -3.3409   -0.1056 C   0  0  0  0  0  0  0  0  0  0  0  0
    2.5469   -2.4576   -1.9681 C   0  0  0  0  0  0  0  0  0  0  0  0
    3.1498   -0.1136    2.0240 C   0  0  0  0  0  0  0  0  0  0  0  0
    1.3781   -4.2648   -0.8741 C   0  0  0  0  0  0  0  0  0  0  0  0
    2.3150   -3.8231   -1.8043 C   0  0  0  0  0  0  0  0  0  0  0  0
    3.6847   -0.0821    3.3441 C   0  0  0  0  0  0  0  0  0  0  0  0
    2.7416    0.2923    4.2757 C   0  0  0  0  0  0  0  0  0  0  0  0
   -3.5491   -0.0770    0.4952 C   0  0  0  0  0  0  0  0  0  0  0  0
   -3.9338   -0.0252   -0.8349 C   0  0  0  0  0  0  0  0  0  0  0  0
   -5.2575    0.2930   -1.1176 C   0  0  0  0  0  0  0  0  0  0  0  0
   -5.6600    0.4687    1.2199 C   0  0  0  0  0  0  0  0  0  0  0  0
   -6.1435    0.5461   -0.0763 C   0  0  0  0  0  0  0  0  0  0  0  0
    1.3442    2.7355    0.3043 H   0  0  0  0  0  0  0  0  0  0  0  0
    1.4889    2.1859   -2.7272 H   0  0  0  0  0  0  0  0  0  0  0  0
    0.1684    2.8847   -1.8015 H   0  0  0  0  0  0  0  0  0  0  0  0
    3.6847    2.7164    0.4237 H   0  0  0  0  0  0  0  0  0  0  0  0
    3.9350    1.8333   -1.0605 H   0  0  0  0  0  0  0  0  0  0  0  0
    0.1427    1.1105    1.0191 H   0  0  0  0  0  0  0  0  0  0  0  0
    1.9749    4.5076   -2.9616 H   0  0  0  0  0  0  0  0  0  0  0  0
    1.4315    4.8614   -1.3161 H   0  0  0  0  0  0  0  0  0  0  0  0
    3.6746    4.7229   -0.7509 H   0  0  0  0  0  0  0  0  0  0  0  0
    4.0826    3.7924   -2.1949 H   0  0  0  0  0  0  0  0  0  0  0  0
   -0.1193   -1.4435    1.5252 H   0  0  0  0  0  0  0  0  0  0  0  0
   -0.0642   -3.7008    0.6102 H   0  0  0  0  0  0  0  0  0  0  0  0
    3.2852   -2.1398   -2.6996 H   0  0  0  0  0  0  0  0  0  0  0  0
    3.7251   -0.3839    1.1481 H   0  0  0  0  0  0  0  0  0  0  0  0
    1.1951   -5.3280   -0.7495 H   0  0  0  0  0  0  0  0  0  0  0  0
    2.8652   -4.5423   -2.4040 H   0  0  0  0  0  0  0  0  0  0  0  0
   -1.9754   -0.4192    1.7642 H   0  0  0  0  0  0  0  0  0  0  0  0
    4.7091   -0.3220    3.5975 H   0  0  0  0  0  0  0  0  0  0  0  0
    2.8742    0.3977    5.3432 H   0  0  0  0  0  0  0  0  0  0  0  0
   -3.3059   -0.2083   -1.6913 H   0  0  0  0  0  0  0  0  0  0  0  0
   -5.5867    0.3407   -2.1523 H   0  0  0  0  0  0  0  0  0  0  0  0
   -6.3012    0.6551    2.0760 H   0  0  0  0  0  0  0  0  0  0  0  0
  1 31  1  0  0  0  0
  2 18  1  0  0  0  0
  2 26  1  0  0  0  0
  3 15  2  0  0  0  0
  4 19  2  0  0  0  0
  5  8  1  0  0  0  0
  5 11  1  0  0  0  0
  5 15  1  0  0  0  0
  6 19  1  0  0  0  0
  6 27  1  0  0  0  0
  6 48  1  0  0  0  0
  7 27  2  0  0  0  0
  7 30  1  0  0  0  0
  8  9  1  0  0  0  0
  8 10  1  0  0  0  0
  8 32  1  0  0  0  0
  9 12  1  0  0  0  0
  9 33  1  0  0  0  0
  9 34  1  0  0  0  0
 10 13  1  0  0  0  0
 10 35  1  0  0  0  0
 10 36  1  0  0  0  0
 11 14  1  0  0  0  0
 11 18  1  0  0  0  0
 11 37  1  0  0  0  0
 12 13  1  0  0  0  0
 12 38  1  0  0  0  0
 12 39  1  0  0  0  0
 13 40  1  0  0  0  0
 13 41  1  0  0  0  0
 14 16  1  0  0  0  0
 14 19  1  0  0  0  0
 14 42  1  0  0  0  0
 15 17  1  0  0  0  0
 16 17  1  0  0  0  0
 16 20  2  0  0  0  0
 17 21  2  0  0  0  0
 18 22  2  0  0  0  0
 20 23  1  0  0  0  0
 20 43  1  0  0  0  0
 21 24  1  0  0  0  0
 21 44  1  0  0  0  0
 22 25  1  0  0  0  0
 22 45  1  0  0  0  0
 23 24  2  0  0  0  0
 23 46  1  0  0  0  0
 24 47  1  0  0  0  0
 25 26  2  0  0  0  0
 25 49  1  0  0  0  0
 26 50  1  0  0  0  0
 27 28  1  0  0  0  0
 28 29  2  0  0  0  0
 28 51  1  0  0  0  0
 29 31  1  0  0  0  0
 29 52  1  0  0  0  0
 30 31  2  0  0  0  0
 30 53  1  0  0  0  0
M  END
> <PUBCHEM_COMPOUND_CID>
22549479

> <PUBCHEM_CONFORMER_RMSD>
0.8

> <PUBCHEM_CONFORMER_DIVERSEORDER>
1
29
55
27
50
26
12
38
51
61
30
11
47
23
31
58
35
28
25
45
57
44
54
32
3
21
60
59
42
6
14
53
62
36
63
4
34
22
46
5
16
39
13
49
52
56
33
20
17
24
10
43
9
41
37
15
18
19
2
8
7
48
40

> <PUBCHEM_MMFF94_PARTIAL_CHARGES>
38
1 -0.18
11 0.48
14 0.2
15 0.54
16 -0.14
17 0.09
18 -0.14
19 0.57
2 -0.08
20 -0.15
21 -0.15
22 -0.15
23 -0.15
24 -0.15
25 -0.15
26 -0.11
27 0.43
28 -0.15
29 -0.15
3 -0.57
30 0.16
31 0.18
4 -0.57
43 0.15
44 0.15
45 0.15
46 0.15
47 0.15
48 0.37
49 0.15
5 -0.66
50 0.15
51 0.15
52 0.15
53 0.15
6 -0.55
7 -0.62
8 0.3

> <PUBCHEM_EFFECTIVE_ROTOR_COUNT>
6.6

> <PUBCHEM_PHARMACOPHORE_FEATURES>
8
1 3 acceptor
1 4 acceptor
1 6 donor
5 2 18 22 25 26 rings
5 8 9 10 12 13 rings
6 16 17 20 21 23 24 rings
6 5 11 14 15 16 17 rings
6 7 27 28 29 30 31 rings

> <PUBCHEM_HEAVY_ATOM_COUNT>
31

> <PUBCHEM_ATOM_DEF_STEREO_COUNT>
0

> <PUBCHEM_ATOM_UDEF_STEREO_COUNT>
2

> <PUBCHEM_BOND_DEF_STEREO_COUNT>
0

> <PUBCHEM_BOND_UDEF_STEREO_COUNT>
0

> <PUBCHEM_ISOTOPIC_ATOM_COUNT>
0

> <PUBCHEM_COMPONENT_COUNT>
1

> <PUBCHEM_CACTVS_TAUTO_COUNT>
3

> <PUBCHEM_CONFORMER_ID>
015813E700000001

> <PUBCHEM_MMFF94_ENERGY>
83.4351

> <PUBCHEM_FEATURE_SELFOVERLAP>
40.622

> <PUBCHEM_SHAPE_FINGERPRINT>
11443803 9 17903637728421905628
11578080 2 17840300026402200128
11582403 64 17753907313198917832
11763715 3 16253313798403012082
12058002 1 18266478554447553514
12128747 34 16083580731885621981
12156800 1 17246944135592501674
13135754 10 16885783170360950826
13583140 156 17023727048398095287
13965767 371 18189603015988674420
14068700 675 17415863305421840686
14747282 540 16477440988466354457
14955137 171 17677038063046375794
15082195 135 18412545453389133127
15420108 30 18119521287390335588
15439362 3 18267315390287004788
15878777 1 12800019389041909946
17980427 23 18118657010968198507
17980427 26 17098604971919859928
20600515 1 16303697329090528158
22121540 332 17843101629200982484
22149856 69 18201167637642943243
23419403 2 17627210283577268158
23559900 14 18338525140690496563
25222932 49 17241618406305237291
25223398 141 17985822872349733855
266924 78 17475574628992974594
3411729 13 17895195562232563181
3552219 110 17627810621443378974
376196 1 17827655960109857972
394222 165 17970628708443996312
5104073 3 17313107454496061921
513532 50 17894638049807529919
57527306 92 18260539040122073040
57527573 199 17631434817271974264
57527585 103 14789052953139584642
5895379 119 18264766550213569073
5951187 136 18040718048209283809

> <PUBCHEM_SHAPE_MULTIPOLES>
617
10.95
4.35
3.47
33.3
0.74
4.09
-4.79
1.27
-6.72
-4.64
-5.22
-0.95
-0.23

> <PUBCHEM_SHAPE_SELFOVERLAP>
1336.63

> <PUBCHEM_SHAPE_VOLUME>
339.3

> <PUBCHEM_COORDINATE_TYPE>
2
5
10

$$$$
